LTspice 24.0.12 for Windows
Circuit: * \\wsl.localhost\Ubuntu\home\smith\Documents\pim-dram\DRAM-Voltage-Study\SPICE_circuit_model\voltron_spice.asc
Start Time: Mon Dec  2 15:51:03 2024
solver = Normal
Maximum thread count: 24



WARNING: Node RA3 is floating.

WARNING: Less than two connections to node ra3.  This node is used by m8.
Per .tran options, skipping operating point for transient analysis.
.step x=1



.step x=2



.step x=3
tnom = 27
temp = 27
method = modified trap
.step x=4
Total elapsed time: 0.484 seconds.

